<edges>
    <edge id="n2c" from="N" to="C" numLanes="1" speed="13.89"/>
    <edge id="s2c" from="S" to="C" numLanes="1" speed="13.89"/>
    <edge id="e2c" from="E" to="C" numLanes="1" speed="13.89"/>
    <edge id="w2c" from="W" to="C" numLanes="1" speed="13.89"/>

    <edge id="c2n" from="C" to="N" numLanes="1" speed="13.89"/>
    <edge id="c2s" from="C" to="S" numLanes="1" speed="13.89"/>
    <edge id="c2e" from="C" to="E" numLanes="1" speed="13.89"/>
    <edge id="c2w" from="C" to="W" numLanes="1" speed="13.89"/>
</edges>
