<?xml version="1.0" encoding="UTF-8"?>

<!-- generated on 2026-05-07 08:17:45 by Eclipse SUMO netconvert Version 1.12.0
<configuration xmlns:xsi="http://www.w3.org/2001/XMLSchema-instance" xsi:noNamespaceSchemaLocation="http://sumo.dlr.de/xsd/netconvertConfiguration.xsd">

    <input>
        <node-files value="/home/kafa46/studies/reinforce_learning/play_with_sb3/03_traffic_signal_control/sumo_data/nodes.nod.xml"/>
        <edge-files value="/home/kafa46/studies/reinforce_learning/play_with_sb3/03_traffic_signal_control/sumo_data/edges.edg.xml"/>
        <connection-files value="/home/kafa46/studies/reinforce_learning/play_with_sb3/03_traffic_signal_control/sumo_data/connections.con.xml"/>
        <tllogic-files value="/home/kafa46/studies/reinforce_learning/play_with_sb3/03_traffic_signal_control/sumo_data/tls.tll.xml"/>
    </input>

    <output>
        <output-file value="/home/kafa46/studies/reinforce_learning/play_with_sb3/03_traffic_signal_control/sumo_data/single_intersection.net.xml"/>
    </output>

    <report>
        <aggregate-warnings value="5"/>
    </report>

</configuration>
-->

<net version="1.9" junctionCornerDetail="5" limitTurnSpeed="5.50" xmlns:xsi="http://www.w3.org/2001/XMLSchema-instance" xsi:noNamespaceSchemaLocation="http://sumo.dlr.de/xsd/net_file.xsd">

    <location netOffset="200.00,200.00" convBoundary="0.00,0.00,400.00,400.00" origBoundary="-200.00,-200.00,200.00,200.00" projParameter="!"/>

    <edge id=":C_0" function="internal">
        <lane id=":C_0_0" index="0" speed="13.89" length="14.40" shape="198.40,207.20 198.40,192.80"/>
    </edge>
    <edge id=":C_1" function="internal">
        <lane id=":C_1_0" index="0" speed="8.00" length="14.19" shape="198.40,207.20 198.95,203.35 200.60,200.60 203.35,198.95 207.20,198.40"/>
    </edge>
    <edge id=":C_2" function="internal">
        <lane id=":C_2_0" index="0" speed="13.89" length="14.40" shape="207.20,201.60 192.80,201.60"/>
    </edge>
    <edge id=":C_3" function="internal">
        <lane id=":C_3_0" index="0" speed="8.00" length="14.19" shape="207.20,201.60 203.35,201.05 200.60,199.40 198.95,196.65 198.40,192.80"/>
    </edge>
    <edge id=":C_4" function="internal">
        <lane id=":C_4_0" index="0" speed="13.89" length="14.40" shape="201.60,192.80 201.60,207.20"/>
    </edge>
    <edge id=":C_5" function="internal">
        <lane id=":C_5_0" index="0" speed="8.00" length="14.19" shape="201.60,192.80 201.05,196.65 199.40,199.40 196.65,201.05 192.80,201.60"/>
    </edge>
    <edge id=":C_6" function="internal">
        <lane id=":C_6_0" index="0" speed="13.89" length="14.40" shape="192.80,198.40 207.20,198.40"/>
    </edge>
    <edge id=":C_7" function="internal">
        <lane id=":C_7_0" index="0" speed="8.00" length="14.19" shape="192.80,198.40 196.65,198.95 199.40,200.60 201.05,203.35 201.60,207.20"/>
    </edge>
    <edge id=":E_0" function="internal">
        <lane id=":E_0_0" index="0" speed="3.65" length="4.67" shape="400.00,198.40 401.20,199.20 401.60,200.00 401.20,200.80 400.00,201.60"/>
    </edge>
    <edge id=":N_0" function="internal">
        <lane id=":N_0_0" index="0" speed="3.65" length="4.67" shape="201.60,400.00 200.80,401.20 200.00,401.60 199.20,401.20 198.40,400.00"/>
    </edge>
    <edge id=":S_0" function="internal">
        <lane id=":S_0_0" index="0" speed="3.65" length="4.67" shape="198.40,0.00 199.20,-1.20 200.00,-1.60 200.80,-1.20 201.60,0.00"/>
    </edge>
    <edge id=":W_0" function="internal">
        <lane id=":W_0_0" index="0" speed="3.65" length="4.67" shape="0.00,201.60 -1.20,200.80 -1.60,200.00 -1.20,199.20 0.00,198.40"/>
    </edge>

    <edge id="c2e" from="C" to="E" priority="-1">
        <lane id="c2e_0" index="0" speed="13.89" length="192.80" shape="207.20,198.40 400.00,198.40"/>
    </edge>
    <edge id="c2n" from="C" to="N" priority="-1">
        <lane id="c2n_0" index="0" speed="13.89" length="192.80" shape="201.60,207.20 201.60,400.00"/>
    </edge>
    <edge id="c2s" from="C" to="S" priority="-1">
        <lane id="c2s_0" index="0" speed="13.89" length="192.80" shape="198.40,192.80 198.40,0.00"/>
    </edge>
    <edge id="c2w" from="C" to="W" priority="-1">
        <lane id="c2w_0" index="0" speed="13.89" length="192.80" shape="192.80,201.60 0.00,201.60"/>
    </edge>
    <edge id="e2c" from="E" to="C" priority="-1">
        <lane id="e2c_0" index="0" speed="13.89" length="192.80" shape="400.00,201.60 207.20,201.60"/>
    </edge>
    <edge id="n2c" from="N" to="C" priority="-1">
        <lane id="n2c_0" index="0" speed="13.89" length="192.80" shape="198.40,400.00 198.40,207.20"/>
    </edge>
    <edge id="s2c" from="S" to="C" priority="-1">
        <lane id="s2c_0" index="0" speed="13.89" length="192.80" shape="201.60,0.00 201.60,192.80"/>
    </edge>
    <edge id="w2c" from="W" to="C" priority="-1">
        <lane id="w2c_0" index="0" speed="13.89" length="192.80" shape="0.00,198.40 192.80,198.40"/>
    </edge>

    <tlLogic id="C" type="static" programID="0" offset="0">
        <phase duration="30" state="GGrrrrrr"/>
        <phase duration="30" state="rrGGrrrr"/>
        <phase duration="30" state="rrrrGGrr"/>
        <phase duration="30" state="rrrrrrGG"/>
        <phase duration="3"  state="yyyyyyyy"/>
    </tlLogic>

    <junction id="C" type="traffic_light" x="200.00" y="200.00" incLanes="n2c_0 e2c_0 s2c_0 w2c_0" intLanes=":C_0_0 :C_1_0 :C_2_0 :C_3_0 :C_4_0 :C_5_0 :C_6_0 :C_7_0" shape="196.80,207.20 203.20,207.20 203.64,204.98 204.20,204.20 204.98,203.64 205.98,203.31 207.20,203.20 207.20,196.80 204.98,196.36 204.20,195.80 203.64,195.02 203.31,194.02 203.20,192.80 196.80,192.80 196.36,195.02 195.80,195.80 195.02,196.36 194.02,196.69 192.80,196.80 192.80,203.20 195.02,203.64 195.80,204.20 196.36,204.98 196.69,205.98">
        <request index="0" response="00000000" foes="11101100" cont="0"/>
        <request index="1" response="00110000" foes="11111100" cont="0"/>
        <request index="2" response="00110011" foes="10110011" cont="0"/>
        <request index="3" response="11110011" foes="11110011" cont="0"/>
        <request index="4" response="00000000" foes="11001110" cont="0"/>
        <request index="5" response="00000001" foes="11001111" cont="0"/>
        <request index="6" response="00110011" foes="00111011" cont="0"/>
        <request index="7" response="00110111" foes="00111111" cont="0"/>
    </junction>
    <junction id="E" type="priority" x="400.00" y="200.00" incLanes="c2e_0" intLanes=":E_0_0" shape="400.00,200.00 400.00,196.80 400.00,200.00">
        <request index="0" response="0" foes="0" cont="0"/>
    </junction>
    <junction id="N" type="priority" x="200.00" y="400.00" incLanes="c2n_0" intLanes=":N_0_0" shape="200.00,400.00 203.20,400.00 200.00,400.00">
        <request index="0" response="0" foes="0" cont="0"/>
    </junction>
    <junction id="S" type="priority" x="200.00" y="0.00" incLanes="c2s_0" intLanes=":S_0_0" shape="200.00,0.00 196.80,0.00 200.00,0.00">
        <request index="0" response="0" foes="0" cont="0"/>
    </junction>
    <junction id="W" type="priority" x="0.00" y="200.00" incLanes="c2w_0" intLanes=":W_0_0" shape="0.00,200.00 0.00,203.20 0.00,200.00">
        <request index="0" response="0" foes="0" cont="0"/>
    </junction>

    <connection from="c2e" to="e2c" fromLane="0" toLane="0" via=":E_0_0" dir="t" state="M"/>
    <connection from="c2n" to="n2c" fromLane="0" toLane="0" via=":N_0_0" dir="t" state="M"/>
    <connection from="c2s" to="s2c" fromLane="0" toLane="0" via=":S_0_0" dir="t" state="M"/>
    <connection from="c2w" to="w2c" fromLane="0" toLane="0" via=":W_0_0" dir="t" state="M"/>
    <connection from="e2c" to="c2w" fromLane="0" toLane="0" via=":C_2_0" tl="C" linkIndex="2" dir="s" state="o"/>
    <connection from="e2c" to="c2s" fromLane="0" toLane="0" via=":C_3_0" tl="C" linkIndex="3" dir="l" state="o"/>
    <connection from="n2c" to="c2s" fromLane="0" toLane="0" via=":C_0_0" tl="C" linkIndex="0" dir="s" state="O"/>
    <connection from="n2c" to="c2e" fromLane="0" toLane="0" via=":C_1_0" tl="C" linkIndex="1" dir="l" state="o"/>
    <connection from="s2c" to="c2n" fromLane="0" toLane="0" via=":C_4_0" tl="C" linkIndex="4" dir="s" state="O"/>
    <connection from="s2c" to="c2w" fromLane="0" toLane="0" via=":C_5_0" tl="C" linkIndex="5" dir="l" state="o"/>
    <connection from="w2c" to="c2e" fromLane="0" toLane="0" via=":C_6_0" tl="C" linkIndex="6" dir="s" state="o"/>
    <connection from="w2c" to="c2n" fromLane="0" toLane="0" via=":C_7_0" tl="C" linkIndex="7" dir="l" state="o"/>

    <connection from=":C_0" to="c2s" fromLane="0" toLane="0" dir="s" state="M"/>
    <connection from=":C_1" to="c2e" fromLane="0" toLane="0" dir="l" state="M"/>
    <connection from=":C_2" to="c2w" fromLane="0" toLane="0" dir="s" state="M"/>
    <connection from=":C_3" to="c2s" fromLane="0" toLane="0" dir="l" state="M"/>
    <connection from=":C_4" to="c2n" fromLane="0" toLane="0" dir="s" state="M"/>
    <connection from=":C_5" to="c2w" fromLane="0" toLane="0" dir="l" state="M"/>
    <connection from=":C_6" to="c2e" fromLane="0" toLane="0" dir="s" state="M"/>
    <connection from=":C_7" to="c2n" fromLane="0" toLane="0" dir="l" state="M"/>
    <connection from=":E_0" to="e2c" fromLane="0" toLane="0" dir="t" state="M"/>
    <connection from=":N_0" to="n2c" fromLane="0" toLane="0" dir="t" state="M"/>
    <connection from=":S_0" to="s2c" fromLane="0" toLane="0" dir="t" state="M"/>
    <connection from=":W_0" to="w2c" fromLane="0" toLane="0" dir="t" state="M"/>

</net>
