<?xml version="1.0" encoding="UTF-8"?>
<!--
  3x2 BRT routes (default, ~6,120 veh/h)
  - 일반 차량: 3x2 base 와 동일 demand (probability 기반)
  - BRT: 좌측 corridor 양방향, 6분 배차 (10대/h/방향, 세종 BRT 표준)
  세종시 실측 고밀도 버전 → routes_3x2_brt_dense.rou.xml (traffic=high)
-->
<routes>
    <vType id="car" vClass="passenger" length="5"  minGap="2.5" maxSpeed="13.89"/>
    <vType id="brt" vClass="bus"       length="12" minGap="3"   maxSpeed="13.89"/>

    <!-- ─ 수평 직진 (6 flows) ─ -->
    <flow id="h1_e" type="car" from="-h11" to="-h13" begin="0" end="100000" probability="0.15" departSpeed="max" departPos="base" departLane="best"/>
    <flow id="h1_w" type="car" from="h13"  to="h11"  begin="0" end="100000" probability="0.15" departSpeed="max" departPos="base" departLane="best"/>
    <flow id="h2_e" type="car" from="-h21" to="-h23" begin="0" end="100000" probability="0.15" departSpeed="max" departPos="base" departLane="best"/>
    <flow id="h2_w" type="car" from="h23"  to="h21"  begin="0" end="100000" probability="0.15" departSpeed="max" departPos="base" departLane="best"/>
    <flow id="h3_e" type="car" from="-h31" to="-h33" begin="0" end="100000" probability="0.15" departSpeed="max" departPos="base" departLane="best"/>
    <flow id="h3_w" type="car" from="h33"  to="h31"  begin="0" end="100000" probability="0.15" departSpeed="max" departPos="base" departLane="best"/>

    <!-- ─ 수직 직진 (4 flows) ─ -->
    <flow id="v1_s" type="car" from="-v11" to="-v14" begin="0" end="100000" probability="0.15" departSpeed="max" departPos="base" departLane="best"/>
    <flow id="v1_n" type="car" from="v14"  to="v11"  begin="0" end="100000" probability="0.15" departSpeed="max" departPos="base" departLane="best"/>
    <flow id="v2_s" type="car" from="-v21" to="-v24" begin="0" end="100000" probability="0.15" departSpeed="max" departPos="base" departLane="best"/>
    <flow id="v2_n" type="car" from="v24"  to="v21"  begin="0" end="100000" probability="0.15" departSpeed="max" departPos="base" departLane="best"/>

    <!-- ─ Cross (4 flows) ─ -->
    <flow id="cross1" type="car" from="-h11" to="v11"  begin="0" end="100000" probability="0.05" departSpeed="max" departPos="base" departLane="best"/>
    <flow id="cross2" type="car" from="-h31" to="-v24" begin="0" end="100000" probability="0.05" departSpeed="max" departPos="base" departLane="best"/>
    <flow id="cross3" type="car" from="-v11" to="-h13" begin="0" end="100000" probability="0.05" departSpeed="max" departPos="base" departLane="best"/>
    <flow id="cross4" type="car" from="-v21" to="h31"  begin="0" end="100000" probability="0.05" departSpeed="max" departPos="base" departLane="best"/>

    <!-- ─ BRT — 좌측 corridor 전 구간 (6분/대 양방향, 세종 BRT 표준 배차) ─ -->
    <flow id="brt_s" type="brt" from="-v11" to="-v14" begin="0" end="100000" period="600" departSpeed="max" departPos="base" departLane="2"/>
    <flow id="brt_n" type="brt" from="v14"  to="v11"  begin="0" end="100000" period="600" departSpeed="max" departPos="base" departLane="2"/>
</routes>
